<?xml version="1.0" encoding="UTF-8"?>

<!--
MIT License

Copyright (c) 2022 Qualcomm Incorporated Inc.

Permission is hereby granted, free of charge, to any person obtaining a copy of
this software and associated documentation files (the "Software"), to deal in
the Software without restriction, including without limitation the rights to
use, copy, modify, merge, publish, distribute, sublicense, and/or sell copies
of the Software, and to permit persons to whom the Software is furnished to do
so, subject to the following conditions:

The above copyright notice and this permission notice shall be included in all
copies or substantial portions of the Software.

THE SOFTWARE IS PROVIDED "AS IS", WITHOUT WARRANTY OF ANY KIND, EXPRESS OR
IMPLIED, INCLUDING BUT NOT LIMITED TO THE WARRANTIES OF MERCHANTABILITY,
FITNESS FOR A PARTICULAR PURPOSE AND NONINFRINGEMENT. IN NO EVENT SHALL THE
AUTHORS OR COPYRIGHT HOLDERS BE LIABLE FOR ANY CLAIM, DAMAGES OR OTHER
LIABILITY, WHETHER IN AN ACTION OF CONTRACT, TORT OR OTHERWISE, ARISING FROM,
OUT OF OR IN CONNECTION WITH THE SOFTWARE OR THE USE OR OTHER DEALINGS IN THE
SOFTWARE.

Project: V2X Application Spoofing Platform (VASP)
Author: Raashid Ansari
Email: quic_ransari@quicinc.com
-->

<additional xmlns:xsi="http://www.w3.org/2001/XMLSchema-instance" xsi:noNamespaceSchemaLocation="http://sumo.dlr.de/xsd/additional_file.xsd">
    <location netOffset="-313156.97,-4681842.99" convBoundary="-3255.66,-3540.81,5794.35,8029.21" origBoundary="-71.303780,42.233776,-71.197605,42.339302" projParameter="+proj=utm +zone=19 +ellps=WGS84 +datum=WGS84 +units=m +no_defs"/>

    <poly id="117755188" type="water" color="181,209,209" fill="1" layer="-4.00" shape="3233.341301,5380.448759 3230.427655,5383.503068 3228.871501,5385.488413 3227.356455,5388.728328 3227.120169,5391.356930 3225.934777,5394.588211 3222.804831,5399.459432 3218.114960,5403.338107 3214.601657,5407.741561 3211.983168,5411.988235 3208.224669,5414.586873 3201.691493,5420.191748 3196.201274,5423.424691 3191.326926,5427.185988 3185.073491,5432.450193 3180.815123,5437.373224 3175.013607,5441.314392 3170.374496,5444.925086 3161.922706,5448.435672 3153.581354,5451.754471 3143.939901,5452.351593 3134.621882,5452.073522 3125.703408,5451.307180 3117.781262,5451.425913 3109.327526,5452.658669 3101.478803,5454.320055 3093.728704,5456.912266 3085.092834,5460.005519 3077.952487,5461.948385 3066.330357,5463.119799 3054.671457,5463.203228 3040.944974,5463.063089 3030.846257,5462.261142 3026.266876,5463.114610 3024.391745,5466.141780 3024.230144,5470.357441 3026.743934,5474.702962 3032.880874,5480.098008 3041.991216,5485.037288 3048.313873,5489.338507 3056.181206,5493.421441 3064.077575,5495.781272 3072.856147,5498.762476 3081.935318,5499.368969 3091.539393,5499.550573 3102.888848,5499.619768 3112.666276,5499.807969 3123.962009,5499.400793 3131.027496,5498.693359 3137.392088,5497.359808 3142.044927,5494.904369 3143.887309,5490.311310 3148.055360,5486.035112 3155.134508,5483.016064 3161.767447,5477.130728 3165.337180,5469.847776 3168.470340,5463.843024 3171.512765,5459.096299 3175.663997,5457.009609 3179.321232,5453.380196 3184.484569,5447.744515 3188.566280,5443.003905 3192.885543,5439.146029 3196.270925,5433.323587 3200.358762,5428.816175 3206.438274,5424.467718 3211.430627,5420.803348 3214.827669,5415.425088 3218.230534,5410.268916 3222.300947,5405.095260 3227.053647,5400.781578 3230.046110,5396.958480 3230.158974,5392.766331 3232.066984,5389.416117 3235.339757,5385.274546 3233.341301,5380.448759"/>
    <poly id="117755725" type="landuse" color="194,194,130" fill="1" layer="-3.00" shape="3024.230144,5470.357441 3024.391745,5466.141780 3026.266876,5463.114610 3030.846257,5462.261142 3040.944974,5463.063089 3054.671457,5463.203228 3066.330357,5463.119799 3077.952487,5461.948385 3085.092834,5460.005519 3093.728704,5456.912266 3101.478803,5454.320055 3109.327526,5452.658669 3117.781262,5451.425913 3125.703408,5451.307180 3134.621882,5452.073522 3143.939901,5452.351593 3153.581354,5451.754471 3161.922706,5448.435672 3170.374496,5444.925086 3175.013607,5441.314392 3180.815123,5437.373224 3185.073491,5432.450193 3191.326926,5427.185988 3196.201274,5423.424691 3201.691493,5420.191748 3208.224669,5414.586873 3211.983168,5411.988235 3214.601657,5407.741561 3218.114960,5403.338107 3222.804831,5399.459432 3225.934777,5394.588211 3227.120169,5391.356930 3227.356455,5388.728328 3228.871501,5385.488413 3230.427655,5383.503068 3233.341301,5380.448759 3235.938678,5376.969371 3239.752001,5370.480143 3241.810605,5364.692478 3246.875762,5355.303595 3255.710620,5346.260468 3263.643802,5336.796490 3266.335384,5329.669941 3266.286887,5319.314909 3263.833544,5310.345171 3263.411643,5302.422315 3268.719944,5294.127164 3276.600308,5290.831700 3285.637073,5289.494996 3291.240292,5286.792545 3299.368598,5283.201705 3254.938231,5242.762123 3251.195778,5251.016274 3228.545804,5229.474549 3227.678288,5238.231235 3221.161700,5241.957732 3222.917797,5248.234414 3214.903499,5258.067252 3216.076876,5267.915009 3209.585434,5281.730479 3206.406099,5300.459558 3195.990019,5334.457089 3135.168652,5400.244284 3100.943815,5415.975699 3065.794841,5422.875308 3056.705311,5427.225024 3016.862874,5433.770124 3022.531864,5446.477976 3017.048004,5448.377466 3017.592901,5458.463927 3024.230144,5470.357441"/>
    <poly id="118840157" type="landuse" color="194,194,130" fill="1" layer="-3.00" shape="1556.653705,6426.797391 1551.039095,6424.334502 1538.374535,6420.635684 1504.198122,6412.949827 1485.004223,6508.754828 1490.281618,6504.081503 1497.806320,6497.081875 1505.331643,6489.793325 1512.451731,6482.771080 1519.129255,6475.227165 1526.051077,6467.254539 1533.361998,6458.716026 1540.199103,6450.656759 1545.883744,6443.294698 1549.967075,6437.430666 1553.524787,6431.958346 1556.653705,6426.797391"/>
    <poly id="118840163" type="landuse" color="194,194,130" fill="1" layer="-3.00" shape="1562.177790,6418.039467 1554.795731,6414.534320 1540.951071,6410.488887 1506.299603,6403.237839 1504.198122,6412.949827 1538.374535,6420.635684 1551.039095,6424.334502 1556.653705,6426.797391 1562.177790,6418.039467"/>
    <poly id="119008647" type="water" color="181,209,209" fill="1" layer="-4.00" shape="2969.963156,5754.146299 2968.359474,5753.999465 2967.884209,5753.800805 2967.373068,5753.491968 2967.061165,5753.233463 2966.806656,5752.962341 2966.602466,5752.723235 2966.334764,5752.263556 2966.141230,5751.801931 2965.994811,5751.250175 2965.945826,5750.640303 2966.018123,5749.938353 2966.207250,5749.288899 2966.434001,5748.816249 2966.632449,5748.522132 2966.912432,5748.192541 2967.024891,5748.078471 2967.379916,5747.780247 2967.817933,5747.502070 2968.405451,5747.264419 2968.962626,5747.127571 2969.646328,5747.098523 2971.024595,5747.140151 2972.266760,5747.652052 2972.825308,5747.881862 2973.177251,5748.094869 2973.530650,5748.363397 2973.920508,5748.764313 2974.185879,5749.135157 2974.367385,5749.452643 2974.552678,5749.914484 2974.692603,5750.533082 2974.727436,5751.232221 2974.694971,5751.566431 2974.576516,5752.080688 2974.352386,5752.653277 2974.202509,5752.912783 2973.916033,5753.309216 2973.796206,5753.456815 2973.570996,5753.673850 2973.280151,5753.903718 2972.809171,5754.182760 2972.270808,5754.408009 2971.524384,5754.560933 2969.963156,5754.146299"/>
    <poly id="119008648" type="water" color="181,209,209" fill="1" layer="-4.00" shape="2931.472368,5764.045686 2934.537679,5763.954146 2939.477495,5762.702230 2942.316474,5761.527661 2942.943488,5759.966649 2942.434968,5757.557586 2939.946225,5755.422717 2934.844123,5754.889866 2929.531172,5754.807029 2926.900919,5755.765000 2925.195063,5758.009926 2924.825229,5760.886514 2925.767106,5762.839727 2928.565465,5763.888608 2931.472368,5764.045686"/>
    <poly id="119009169" type="commercial" color="209,209,204" fill="1" layer="-3.00" shape="3131.256504,5540.157072 3029.293157,5542.041125 2976.647258,5563.167757 2877.894455,5681.089726 2829.594434,5703.414704 2659.877571,5718.117475 2603.148136,5761.378303 2607.869656,5776.922091 2580.271514,5797.115747 2576.995077,5800.468805 2572.914770,5804.298589 2563.611774,5812.732702 2529.988514,5836.796388 2519.068047,5843.928550 2506.812952,5850.795806 2498.951213,5856.958599 2492.719328,5860.500551 2488.557794,5873.466585 2479.553460,5891.993770 2474.321192,5911.277369 2468.630836,5922.550163 2494.073928,5970.318096 2606.480291,5921.714404 2641.513498,5906.436930 2766.658143,5890.637058 2780.266924,5891.035279 2793.490860,5892.165909 2808.605183,5894.313677 2820.741759,5896.117403 2912.702110,5918.927704 2926.206896,5921.651331 2937.533252,5920.865206 2949.407280,5918.009019 2959.694739,5910.627464 2967.417367,5901.979779 2972.723621,5890.495274 2979.332379,5870.820436 3014.555929,5716.240565 3106.701350,5680.933230 3131.256504,5540.157072"/>
    <poly id="119010357" type="water" color="181,209,209" fill="1" layer="-4.00" shape="2666.634123,5354.434044 2667.278846,5355.117159 2667.869380,5355.935042 2668.353359,5356.777948 2668.794892,5357.888656 2669.111566,5359.269332 2669.182749,5360.723130 2669.085385,5361.725765 2668.811087,5362.899728 2668.338998,5364.078887 2667.914095,5364.856776 2667.324949,5365.661205 2650.452584,5386.417187 2648.850563,5387.592702 2647.075547,5388.461627 2647.868894,5386.640643 2649.129371,5384.707376 2649.619838,5384.227786 2649.971952,5383.818503 2650.513105,5383.070894 2650.898841,5382.371817 2651.332053,5381.282573 2651.592490,5380.208981 2651.675703,5379.295613 2651.607434,5377.952859 2651.318399,5376.682577 2650.912164,5375.659838 2650.471432,5374.893580 2649.923854,5374.141242 2649.329747,5373.501246 2649.000165,5373.198771 2648.301837,5372.672633 2647.506072,5372.204616 2646.422152,5371.755282 2641.983040,5351.270333 2642.447177,5350.102493 2642.729712,5348.928312 2642.818831,5347.925893 2642.747935,5346.483200 2642.439789,5345.113413 2641.998543,5344.013810 2641.522801,5343.170689 2640.924313,5342.364129 2640.287828,5341.680800 2639.915870,5341.334991 2639.166924,5340.765736 2638.304056,5340.255035 2638.256126,5337.489414 2637.126676,5334.052157 2634.552861,5329.630554 2631.605049,5326.041064 2629.932971,5322.040246 2630.275146,5317.486459 2630.826857,5313.060509 2631.554700,5308.118781 2630.069538,5302.757390 2627.852132,5298.404206 2629.421063,5297.851828 2631.332925,5297.168207 2641.187979,5311.910407 2644.039023,5319.036049 2647.079913,5328.679120 2649.483357,5335.405382 2653.130657,5340.821086 2657.813954,5345.176159 2661.521773,5348.501227 2666.634123,5354.434044"/>
    <poly id="119010358" type="water" color="181,209,209" fill="0" layer="-4.00" shape="2661.663510,4103.302945 2663.603662,4101.485192 2666.660020,4100.082603 2670.418751,4099.983891 2701.390490,4099.615063 2705.662159,4100.202954 2712.499017,4101.101301 2717.801992,4101.384323 2723.149467,4101.477277 2726.360512,4101.881899 2729.525488,4103.987859 2731.574949,4107.589881 2732.643774,4112.484408 2732.622929,4117.974252 2732.657955,4123.707092 2734.146840,4129.835129 2736.563719,4133.294163 2738.893504,4136.577693 2739.966935,4140.705377 2739.541769,4145.561343 2739.874224,4149.741815 2738.914284,4155.278536 2736.381678,4159.978701 2730.410888,4168.502743 2725.311008,4176.581672 2723.683132,4182.124821 2723.173858,4187.860841 2721.679224,4198.478648 2717.298934,4208.516618 2711.608889,4217.677801 2708.428945,4222.539432 2707.548153,4226.062821 2707.460487,4229.320921 2709.599384,4235.387439 2711.270590,4239.977237 2711.612022,4244.813078 2710.221094,4250.583361 2706.214155,4258.189135 2702.357321,4267.113290 2699.683004,4274.895203 2698.006050,4282.650927 2695.617863,4292.847732 2694.932733,4300.366285 2694.741908,4310.060911 2694.793832,4320.204752 2695.030903,4329.232537 2695.592214,4342.441010 2696.655911,4349.024684 2698.616643,4356.473757 2700.802038,4363.683581 2705.677239,4380.979089 2707.160281,4386.885036 2707.533287,4392.609004 2706.362247,4398.584645 2704.110045,4405.477632 2700.952869,4411.516541 2695.049561,4418.516524 2691.582951,4421.252204 2686.079876,4424.019144 2683.584132,4426.662660 2680.405372,4428.424048 2669.789049,4433.725474"/>
    <poly id="119125371" type="water" color="181,209,209" fill="1" layer="-4.00" shape="1947.247734,5974.643690 1970.002891,5961.953532 1979.687753,5959.275655 1994.748388,5957.189406 2009.061724,5955.534043 2034.062339,5955.752635 2063.503368,5956.743212 2086.799477,5957.995900 2096.430523,5957.341995 2106.733681,5955.281384 2113.803637,5954.761680 2101.231509,5947.703549 2089.600236,5942.865268 2078.007497,5940.115052 2064.330146,5937.430924 2047.574317,5934.650195 2031.056403,5935.263516 2009.399437,5938.945975 1998.267982,5941.806416 1983.978263,5944.983526 1974.347003,5947.193277 1970.356263,5948.776441 1966.584605,5951.787282 1961.301683,5959.405040 1953.597913,5968.408996 1947.247734,5974.643690"/>
    <poly id="119128945" type="commercial" color="209,209,204" fill="1" layer="-3.00" shape="2517.217680,5516.095806 2527.777788,5520.329597 2538.450618,5527.282875 2548.577291,5536.361804 2556.309070,5546.570457 2562.209637,5557.705105 2569.918488,5577.081758 2576.505415,5596.132327 2581.438105,5614.370763 2584.722506,5628.885568 2585.953083,5644.954479 2583.898913,5660.298562 2577.392647,5679.448860 2570.351544,5697.702044 2559.635622,5713.251632 2520.523367,5751.883008 2499.014926,5769.705566 2474.229320,5786.458752 2454.049798,5798.990533 2435.030209,5810.158419 2410.727612,5822.065419 2389.280445,5831.230483 2293.647173,5860.105534 2375.525907,5495.643374 2517.217680,5516.095806"/>
    <poly id="119129300" type="water" color="181,209,209" fill="0" layer="-4.00" shape="2579.202220,5470.018262 2576.761199,5789.062945"/>
    <poly id="119129302" type="water" color="181,209,209" fill="0" layer="-4.00" shape="2576.761199,5789.062945 2576.585227,5793.034550 2575.967011,5796.495517 2574.287771,5800.062163 2571.703702,5802.774750 2542.881805,5825.345368 2531.805479,5833.137213 2519.607097,5840.280753 2475.110229,5864.152866 2432.778115,5885.979275 2427.312271,5888.545502 2423.005386,5892.848047 2420.840571,5896.760872 2415.928482,5906.268651 2411.385667,5913.199844 2406.517094,5918.406141 2402.242617,5924.252417 2397.930860,5931.188652 2394.175854,5937.032375 2389.054132,5944.212173 2385.420645,5948.719263 2381.929177,5950.789089 2376.705830,5953.793457 2371.526270,5958.774615 2364.213923,5966.689923 2358.251133,5975.436454 2353.551041,5983.594152 2348.704024,5990.555625 2344.713835,5993.727576 2339.474166,5996.110133 2335.694551,5998.509817 2333.239463,6001.730259 2332.690146,6007.489630 2331.321780,6011.581537 2328.700663,6015.073041 2322.991649,6017.167943 2318.961252,6018.185238 2316.381620,6020.119973 2315.243764,6023.883567 2314.445072,6028.627201 2312.613223,6034.220325 2308.403785,6040.965028 2305.123739,6044.485003 2292.098809,6055.917753"/>
    <poly id="119133707" type="parking" color="184,184,179" fill="1" layer="-1.00" shape="2554.275254,5357.531376 2566.118832,5372.621232 2554.187276,5381.791136 2547.806221,5385.636955 2541.783971,5388.073238 2537.652466,5389.337506 2532.115559,5390.472047 2525.782430,5390.494107 2519.555242,5389.213284 2514.620319,5387.209544 2510.572018,5384.738014 2507.478540,5382.196931 2505.180900,5379.812713 2503.637242,5377.875372 2502.575020,5376.369851 2500.797587,5373.383020 2499.302241,5369.833172 2495.332577,5360.003450 2514.146962,5354.152735 2517.295132,5362.537285 2518.183569,5364.647425 2518.899718,5365.850912 2519.207794,5366.276179 2519.838967,5367.070758 2520.704111,5367.981416 2521.875643,5368.939579 2523.434519,5369.887557 2525.243328,5370.617836 2527.730913,5371.130254 2530.097638,5371.123586 2532.829159,5370.562842 2535.275219,5369.809588 2539.078025,5368.276162 2543.169772,5365.812847 2554.275254,5357.531376"/>
    <poly id="119133708" type="parking" color="184,184,179" fill="1" layer="-1.00" shape="2369.684690,5442.903987 2388.837266,5377.517067 2392.891814,5370.820972 2397.346811,5363.358727 2402.453580,5356.846081 2405.348723,5353.414088 2420.932832,5366.471819 2418.277625,5369.619693 2414.192440,5374.838684 2410.353088,5381.251305 2407.610498,5385.779370 2388.702867,5448.570691 2369.684690,5442.903987"/>
    <poly id="119133709" type="parking" color="184,184,179" fill="1" layer="-1.00" shape="2505.188532,5339.331562 2440.961091,5355.666358 2434.274280,5357.920199 2429.583223,5350.454115 2439.449645,5347.116550 2501.038912,5331.440054 2505.188532,5339.331562"/>
    <poly id="119135012" type="parking" color="184,184,179" fill="1" layer="-1.00" shape="2487.517332,5249.100262 2495.583357,5243.465504 2503.722400,5237.784389 2548.063199,5297.223306 2539.691460,5302.521571 2531.392738,5307.773478 2487.517332,5249.100262"/>
    <poly id="119135014" type="parking" color="184,184,179" fill="1" layer="-1.00" shape="2435.610212,5222.163249 2432.083068,5226.967511 2440.881471,5232.558754 2439.097961,5237.494941 2437.284408,5242.543039 2429.848957,5268.385094 2439.448698,5271.521728 2442.111247,5277.429940 2451.421182,5272.684703 2451.932610,5273.315746 2452.620029,5274.053280 2453.580877,5274.839182 2454.846074,5275.594855 2456.272011,5276.190733 2458.311676,5276.603789 2460.208379,5276.598351 2462.086619,5276.204479 2463.579910,5275.598493 2464.805971,5274.866191 2465.646144,5274.199599 2466.264965,5273.583276 2466.729536,5273.059907 2467.389921,5272.142467 2467.893719,5271.229147 2468.427626,5269.892779 2468.746671,5268.539838 2469.497287,5265.408741 2476.873826,5267.426026 2478.531622,5262.726507 2480.698315,5256.680167 2482.296545,5252.537815 2485.618448,5246.827793 2480.403757,5240.775556 2481.766719,5239.917425 2483.496103,5239.194115 2485.274872,5238.780642 2487.218406,5238.673972 2488.964079,5238.883641 2490.309130,5239.226078 2491.810120,5239.853325 2492.957894,5240.534310 2493.925522,5241.264479 2495.583357,5243.465504 2503.722400,5237.784389 2485.751889,5213.955044 2481.741056,5209.149024 2477.256103,5205.444449 2471.820545,5202.598275 2469.043987,5201.448979 2466.112527,5200.681565 2462.538745,5200.264405 2458.594257,5200.490380 2454.847731,5201.344534 2451.282976,5202.838404 2448.467848,5204.612582 2446.376808,5206.323268 2445.043762,5207.691769 2443.652670,5209.361821 2442.128711,5211.624303 2441.268876,5213.424838 2435.610212,5222.163249"/>
    <poly id="119135017" type="parking" color="184,184,179" fill="1" layer="-1.00" shape="2602.196461,5270.831796 2590.681239,5277.023786 2571.375267,5257.907484 2577.328435,5250.328206 2602.196461,5270.831796"/>
    <poly id="119135018" type="parking" color="184,184,179" fill="1" layer="-1.00" shape="2485.751889,5213.955044 2492.229836,5209.084327 2494.057181,5211.458686 2513.803959,5196.827237 2517.701079,5202.014072 2521.817555,5198.605583 2586.725973,5287.506325 2603.041536,5309.890391 2606.258207,5314.295089 2603.668095,5316.785571 2607.336732,5321.756214 2586.919162,5335.960564 2582.322280,5329.247525 2575.370480,5334.286187 2557.727179,5310.336961 2548.063199,5297.223306 2503.722400,5237.784389 2485.751889,5213.955044"/>
    <poly id="119135018#1" type="building" color="255,230,230" fill="1" layer="-1.00" shape="2485.751889,5213.955044 2492.229836,5209.084327 2494.057181,5211.458686 2513.803959,5196.827237 2517.701079,5202.014072 2521.817555,5198.605583 2586.725973,5287.506325 2603.041536,5309.890391 2606.258207,5314.295089 2603.668095,5316.785571 2607.336732,5321.756214 2586.919162,5335.960564 2582.322280,5329.247525 2575.370480,5334.286187 2557.727179,5310.336961 2548.063199,5297.223306 2503.722400,5237.784389 2485.751889,5213.955044"/>
    <poly id="119136087" type="building" color="255,230,230" fill="1" layer="-1.00" shape="2469.939839,5298.855284 2479.836630,5263.114442 2492.319567,5266.753146 2518.978031,5304.844082 2515.057638,5306.925096 2517.593091,5310.825406 2523.554035,5310.446435 2526.514890,5313.902195 2526.847476,5318.082667 2523.187788,5321.923627 2518.325361,5322.051476 2515.364505,5318.595718 2434.506088,5339.457089 2434.148102,5342.777878 2429.080405,5343.566797 2414.588310,5339.103221 2418.027666,5326.889557 2419.782331,5326.187788 2430.040253,5287.570464 2469.939839,5298.855284"/>
    <poly id="119136089" type="building" color="255,230,230" fill="1" layer="-1.00" shape="2455.806678,5403.357428 2496.287006,5392.847597 2487.896408,5360.732380 2447.415900,5371.242253 2455.806678,5403.357428"/>
    <poly id="119136091" type="building" color="255,230,230" fill="1" layer="-1.00" shape="2557.310856,5459.826228 2600.758436,5426.670562 2589.786052,5412.402267 2604.020617,5401.116179 2608.140081,5406.297212 2637.403202,5383.493157 2629.709706,5343.358871 2617.773227,5326.926806 2585.038288,5352.255707 2590.925130,5391.104007 2579.957364,5399.604041 2566.935756,5382.678320 2523.488325,5415.845295 2557.310856,5459.826228"/>
    <poly id="119208125" type="parking" color="184,184,179" fill="1" layer="-1.00" shape="2427.305221,5380.794212 2445.696211,5375.154460 2453.297266,5408.912756 2473.281398,5403.331176 2481.162160,5401.634905 2488.349522,5401.168085 2494.567784,5401.482372 2501.188537,5403.930692 2507.937542,5408.120228 2513.360793,5412.700214 2518.523914,5418.364905 2537.175200,5443.643189 2541.531897,5450.318064 2543.931842,5457.222178 2544.091135,5465.163056 2540.637777,5469.320834 2536.278420,5471.013352 2530.742003,5471.536727 2440.808050,5462.712171 2437.085534,5461.965585 2433.899697,5460.615946 2431.251939,5459.029914 2429.144888,5457.307427 2427.601747,5455.703448 2426.577449,5454.385844 2425.960709,5453.513110 2424.752597,5451.478063 2423.609662,5448.785693 2422.783230,5445.584958 2422.481378,5441.948166 2422.776864,5439.073499 2423.754809,5429.224771 2425.763549,5420.626805 2426.922239,5415.140335 2428.300126,5408.581349 2429.078631,5401.182507 2429.242501,5392.677524 2428.390334,5385.677165 2427.305221,5380.794212"/>
    <poly id="119402438" type="water" color="181,209,209" fill="1" layer="-4.00" shape="1047.001815,5124.004407 1041.250108,5102.099298 1032.443028,5083.475458 1023.725377,5067.605061 1022.467378,5051.881429 1025.628730,5039.841007 1028.937547,5031.497012 1038.693808,5025.560155 1047.266795,5019.788016 1053.452628,5012.012295 1063.636666,5001.985996 1067.635491,4995.401677 1071.565796,4983.740943 1080.919236,4974.114494 1090.122276,4965.347676 1098.349841,4957.429010 1103.052283,4947.514667 1112.905363,4936.197103 1119.424837,4929.179346 1121.200881,4918.075759 1117.611769,4904.636295 1116.934918,4895.586751 1118.982668,4884.153716 1123.657032,4869.439710 1127.120170,4853.213210 1129.119698,4840.892490 1133.549405,4830.952065 1139.078020,4818.593437 1140.854038,4811.845803 1147.298365,4790.150994 1156.677394,4761.544536 1160.739521,4752.358379 1163.627068,4746.470286 1164.819968,4741.060443 1163.728888,4736.611163 1159.900190,4734.056765 1141.862264,4734.378906 1132.641967,4734.100843 1116.772342,4732.832149 1100.943909,4732.184677 1079.146081,4732.551022 1072.453159,4733.028374 1068.671791,4732.261817 1065.537731,4731.022516 1063.309138,4729.092499 1061.417601,4726.186798 1060.306431,4722.226995 1060.312448,4711.870357 1057.681724,4711.884502 1055.092210,4711.897555 1055.275532,4717.570982 1054.428605,4721.404875 1052.636497,4723.808127 1048.774732,4725.610607 1044.741901,4731.851352 1041.815824,4743.752168 1037.972257,4753.088180 1036.769688,4764.976664 1037.210518,4779.432943 1036.043851,4793.609570 1041.805572,4802.502138 1056.277059,4812.330685 1072.000067,4826.126457 1079.468346,4839.352004 1079.171997,4855.872440 1077.250069,4883.881414 1072.903159,4896.631051 1068.414442,4904.650692 1059.982562,4912.330339 1046.555765,4924.176055 1031.132420,4934.441233 1019.160423,4942.670352 1000.873389,4957.534132 989.436014,4970.060636 982.355091,4983.271743 978.730467,4994.013238 972.738681,5004.439680 968.663407,5008.759214 964.732663,5012.930461 956.289545,5019.866033 951.009834,5027.906736 949.354779,5038.584917 951.905365,5045.195672 957.235195,5052.110551 961.924817,5061.009252 967.270542,5072.257441 973.144610,5084.458381 973.964127,5096.393292 973.882622,5102.962714 975.934548,5110.675684 973.941251,5114.817789 970.572470,5117.785142 965.868523,5118.298782 959.235112,5115.407713 951.804302,5111.371021 943.908455,5111.880413 938.494255,5113.290761 935.876365,5116.271556 936.401256,5123.313835 936.960275,5128.843960 937.770660,5133.900710 942.064912,5138.153902 947.081173,5140.710022 949.962269,5145.789651 960.040995,5152.645282 968.536998,5157.664942 977.432695,5159.718190 993.070933,5160.692622 1007.236265,5161.795029 1017.369073,5162.604314 1022.841525,5162.459262 1028.857925,5162.299797 1033.427625,5161.389720 1038.009695,5158.768053 1042.542931,5151.191682 1046.438911,5145.087889 1048.265369,5136.827634 1047.001815,5124.004407"/>
    <poly id="119402549" type="water" color="181,209,209" fill="0" layer="-4.00" shape="1022.841525,5162.459262 1023.711004,5170.370266 1025.377277,5174.737610 1029.943127,5179.905959 1033.003986,5187.103267 1033.184987,5193.932420 1034.785276,5212.613917 1034.060567,5226.967753 1032.996205,5236.907969 1033.259029,5246.824122 1035.258466,5255.360792 1035.620473,5269.019099 1033.157411,5283.130096 1032.980796,5290.157634 1033.135313,5297.231957 1034.805969,5303.321564 1038.831037,5308.004203 1044.723081,5314.359739 1046.459957,5318.280731"/>
    <poly id="120473122" type="landuse" color="194,194,130" fill="1" layer="-3.00" shape="1212.121577,4099.507587 1195.347892,4168.213095 1208.977273,4177.664267 1239.212509,4188.420541 1265.058700,4204.760226 1286.327072,4227.655015 1363.001984,4276.497639 1367.192601,4269.964027 1405.564663,4294.929230 1400.606226,4302.372088 1411.961439,4309.439112 1422.124176,4315.393141 1432.743763,4321.468449 1444.353325,4327.550935 1455.192534,4332.887073 1465.313198,4337.564386 1473.027986,4341.094097 1480.132862,4344.017662 1486.698442,4346.822145 1508.486646,4308.598626 1508.507149,4306.253441 1508.698693,4303.825951 1507.700514,4299.451959 1506.213862,4296.257643 1504.235585,4293.187441 1501.553210,4289.380230 1498.543791,4285.370534 1495.444581,4281.396548 1492.282923,4277.868697 1488.500151,4273.935005 1484.725593,4270.312236 1480.699031,4266.829475 1476.694796,4263.879504 1472.345246,4260.971999 1468.119285,4258.683505 1462.732592,4256.170120 1457.248428,4254.026014 1451.423938,4252.113150 1379.371295,4230.505237 1372.771083,4228.268478 1367.013387,4226.076113 1361.584223,4223.830615 1356.798282,4221.579220 1352.128048,4219.024742 1347.900295,4216.047416 1343.873613,4212.875868 1339.803969,4209.327649 1335.885352,4205.564308 1332.186936,4201.706247 1327.540669,4196.628711 1292.303845,4155.512882 1285.706139,4148.386822 1279.027738,4141.640713 1272.706072,4135.907480 1266.325505,4130.442501 1260.080324,4125.418428 1253.856895,4120.904939 1246.745301,4116.181606 1239.994003,4111.982125 1233.482301,4108.420808 1227.515477,4105.500688 1221.274855,4102.832285 1213.886116,4100.105381 1212.121577,4099.507587"/>
    <poly id="120473122#1" type="forest" color="140,196,107" fill="1" layer="-4.00" shape="1212.121577,4099.507587 1195.347892,4168.213095 1208.977273,4177.664267 1239.212509,4188.420541 1265.058700,4204.760226 1286.327072,4227.655015 1363.001984,4276.497639 1367.192601,4269.964027 1405.564663,4294.929230 1400.606226,4302.372088 1411.961439,4309.439112 1422.124176,4315.393141 1432.743763,4321.468449 1444.353325,4327.550935 1455.192534,4332.887073 1465.313198,4337.564386 1473.027986,4341.094097 1480.132862,4344.017662 1486.698442,4346.822145 1508.486646,4308.598626 1508.507149,4306.253441 1508.698693,4303.825951 1507.700514,4299.451959 1506.213862,4296.257643 1504.235585,4293.187441 1501.553210,4289.380230 1498.543791,4285.370534 1495.444581,4281.396548 1492.282923,4277.868697 1488.500151,4273.935005 1484.725593,4270.312236 1480.699031,4266.829475 1476.694796,4263.879504 1472.345246,4260.971999 1468.119285,4258.683505 1462.732592,4256.170120 1457.248428,4254.026014 1451.423938,4252.113150 1379.371295,4230.505237 1372.771083,4228.268478 1367.013387,4226.076113 1361.584223,4223.830615 1356.798282,4221.579220 1352.128048,4219.024742 1347.900295,4216.047416 1343.873613,4212.875868 1339.803969,4209.327649 1335.885352,4205.564308 1332.186936,4201.706247 1327.540669,4196.628711 1292.303845,4155.512882 1285.706139,4148.386822 1279.027738,4141.640713 1272.706072,4135.907480 1266.325505,4130.442501 1260.080324,4125.418428 1253.856895,4120.904939 1246.745301,4116.181606 1239.994003,4111.982125 1233.482301,4108.420808 1227.515477,4105.500688 1221.274855,4102.832285 1213.886116,4100.105381 1212.121577,4099.507587"/>